case4gs_results_explained.txt
==================================================================================== —— 说明：分隔线用于划分版块
|     NEWTON-RAPHSON POWER FLOW CALCULATION RESULTS                          | —— 说明：标题——牛顿-拉夫逊潮流计算结果
==================================================================================== —— 说明：分隔线

 —— 说明：空行（视觉间隔）
✓ 潮流计算收敛 —— 说明：迭代满足收敛判据（最大不平衡低于设定阈值）
  迭代次数: 4 —— 说明：完成了4次牛顿迭代
  计算时间: 0.0091 秒 —— 说明：总耗时，从构建到收敛的运行时间

==================================================================================== —— 说明：系统摘要版块开始
|     System Summary                                                           | —— 说明：系统摘要统计
==================================================================================== —— 说明：分隔线

 —— 说明：空行
How many?               How much?               P (MW)            Q (MVAr) —— 说明：表头——左列是数量，右列是规模与功率
---------------------  -------------------  -------------  ----------------- —— 说明：表头分隔线
Buses          4        Total Gen Capacity        318.0       -200.0 to   200.0 —— 说明：节点总数4；发电总容量Pgmax=318MW；无功能力总范围Qmin到Qmax
Generators     2        Generation (actual)       504.8             295.9 —— 说明：在线发电机数2；全网实际发电Pg、Qg（由潮流计算得到）
Loads          4        Load                      500.0             309.9 —— 说明：负荷节点数4；全网负荷Pd、Qd（来自算例bus表）
Shunts         0        Shunt (inj)                 0.0               0.0 —— 说明：并联电容/电抗器数量；其注入的等效有功/无功（近似Gs·V²、Bs·V²）
Branches       4        Losses (I^2 * R)           4.81                  —— 说明：支路总数4；全网I²R有功损耗汇总（MW）
                        Losses (I^2 * X)              -             24.05 —— 说明：该行延续上一项；I²X无功损耗汇总（MVAr）
Transformers   0        Branch Charging (inj)         -              38.0 —— 说明：变压器条数0；支路充电无功注入总量（MVAr）


                          Minimum                      Maximum —— 说明：电压/角度的最小/最大统计表头
                  -------------------------  -------------------------------- —— 说明：分隔线
Voltage Magnitude   0.969 p.u. @ bus 3        1.020 p.u. @ bus 4     —— 说明：最小电压幅值0.969（3号）；最大1.020（4号），单位标幺
Voltage Angle       -1.87 deg   @ bus 3         1.52 deg   @ bus 4     —— 说明：最小电压角-1.87度（3号）；最大1.52度（4号）
P Losses (I^2*R)             -                    1.84 MW    @ line 3-4 —— 说明：有功损耗最大值所在支路（3-4），值为1.84MW
Q Losses (I^2*X)             -                    9.18 MVAr  @ line 3-4 —— 说明：无功损耗最大值所在支路（3-4），值为9.18MVAr

==================================================================================== —— 说明：节点数据版块开始
|     Bus Data                                                                 | —— 说明：节点数据（电压、发电、负荷）
==================================================================================== —— 说明：分隔线
 Bus      Voltage          Generation             Load         —— 说明：表头：节点、电压、发电、负荷
  #   Mag(pu) Ang(deg)   P (MW)   Q (MVAr)   P (MW)   Q (MVAr) —— 说明：列含义：编号、电压幅值、角度、发电P/Q、负荷P/Q
----- ------- --------  --------  --------  --------  -------- —— 说明：表头分隔线
    1  1.000    0.000*    186.81    114.50     50.00     30.99 —— 说明：1号为Slack（*）；电压1.000∠0°；发电Pg/Qg；负荷Pd/Qd
    2  0.982   -0.976       -          -        170.00    105.35 —— 说明：2号电压0.982∠-0.976°；无发电（-）；负荷170/105.35
    3  0.969   -1.872       -          -        200.00    123.94 —— 说明：3号电压0.969∠-1.872°；无发电（-）；负荷200/123.94
    4  1.020    1.523     318.00    181.43     80.00     49.58 —— 说明：4号电压1.020∠1.523°；发电318/181.43；负荷80/49.58
                                 --------  --------  --------  -------- —— 说明：合计分隔线
                           Total:    504.81    295.93    500.00    309.86 —— 说明：总发电Pg/Qg与总负荷Pd/Qd；用于平衡核对（Pg≈Pd+损耗）

==================================================================================== —— 说明：支路数据版块开始
|     Branch Data                                                              | —— 说明：支路潮流（端注入与损耗）
==================================================================================== —— 说明：分隔线
 Brnch   From   To    From Bus Injection   To Bus Injection     Loss (I^2 * Z)   —— 说明：表头：序号、起止节点、两端注入、I²Z损耗
   #     Bus    Bus    P (MW)   Q (MVAr)   P (MW)   Q (MVAr)   P (MW)   Q (MVAr) —— 说明：列含义：有功/无功单位MW/MVAr
----- -----  -----  --------  --------  --------  --------  --------  -------- —— 说明：表头分隔线
    1      1      2     38.69     22.30    -38.46    -31.24     0.227      1.13 —— 说明：支路1：1→2；From端注入正表示向线送出；To端为负表示线流入；损耗I²R/I²X
    2      1      3     98.12     61.21    -97.09    -63.57     1.031      5.16 —— 说明：支路2：1→3；同理解释，注意数值对应MW/MVAr
    3      2      4   -131.54    -74.11    133.25     74.92     1.715      8.58 —— 说明：支路3：2→4；From端为负表示从该端吸收（流向相反）；损耗列给出I²Z
    4      3      4   -102.91    -60.37    104.75     56.93     1.835      9.18 —— 说明：支路4：3→4；同理，To端正表示向该端注入
                                                              --------  -------- —— 说明：损耗合计分隔线
                                                        Total:     4.809     24.05 —— 说明：全网I²R有功损耗与I²X无功损耗汇总

==================================================================================== —— 说明：结果文件结束的分隔线
